/*--------------------------------*- C++ -*----------------------------------*\
  Turbulence properties for RAS k-epsilon model
\*---------------------------------------------------------------------------*/

FoamFile
{
    format      ascii;
    class       dictionary;
    location    "constant";
    object      turbulenceProperties;
}

simulationType RAS;

RAS
{
    RASModel        kEpsilon;
    turbulence      on;
    printCoeffs     on;
}

// ************************************************************************* //
