/*--------------------------------*- C++ -*----------------------------------*\
  =========                 |
  \\      /  F ield         | OpenFOAM: The Open Source CFD Toolbox
   \\    /   O peration     | Website:  https://openfoam.org
    \\  /    A nd           | Version:  11
     \\/     M anipulation  |
\*---------------------------------------------------------------------------*/
FoamFile
{
    format      ascii;
    class       volScalarField;
    location    "0";
    object      epsilon;
}
// * * * * * * * * * * * * * * * * * * * * * * * * * * * * * * * * * * * * * //

// epsilon = C_mu^0.75 * k^1.5 / l,  l ~ 0.1 * room_height = 0.4 m
// epsilon ~ 0.09^0.75 * 0.01^1.5 / 0.4 ~ 0.00054  (using 0.001 is fine)

dimensions      [0 2 -3 0 0 0 0];

internalField   uniform 0.001;

boundaryField
{
    inlet
    {
        type            fixedValue;
        value           uniform 0.001;
    }

    outlet
    {
        type            inletOutlet;
        inletValue      uniform 0.001;
        value           uniform 0.001;
    }

    walls
    {
        type            epsilonWallFunction;
        value           uniform 0.001;
    }
}

// ************************************************************************* //
